/batch
/config,noeldb,1     ! force off writing results to database
*get,_wallstrt,active,,time,wall
! ANSYS input file written by Workbench version 2025 R2
! File used for geometry attach: C:\Users\aqm81\Desktop\Resuelto\CircularBar5mmRadius.scdoc
/title,wbnew--Static Structural (A5)
! ****** Begin Custom Load Command Snippet ******
/COM, ACT Extensions:
/COM,     LSDYNA, 2025.2
/COM,     5f463412-bd3e-484b-87e7-cbc0a665e474, wbex
/COM,/COM,     ANSYSMotion, 2025.2
/COM,     20180725-3f81-49eb-9f31-41364844c769, wbex
/COM,
! ****** End   Custom Load Command Snippet ******
*DIM,_wb_ProjectScratch_dir,string,248
_wb_ProjectScratch_dir(1) = 'C:\Users\aqm81\AppData\Local\Temp\WB_aqm81_48188_5\_ProjectScratch\Scr37D2\'
*DIM,_wb_SolverFiles_dir,string,248
_wb_SolverFiles_dir(1) = 'C:\Users\aqm81\AppData\Local\Temp\WB_aqm81_48188_5\wbnew_files\dp0\SYS\MECH\'
*DIM,_wb_userfiles_dir,string,248
_wb_userfiles_dir(1) = 'C:\Users\aqm81\AppData\Local\Temp\WB_aqm81_48188_5\wbnew_files\user_files\'
/com,--- Data in consistent NMM units. See Solving Units in the help system for more information.
/units,MPA
/nopr
/wb,file,start              !  signify a WB generated input file
/prep7
! Turn off shape checking because checks already performed inside WB mesher.
! See help system for more information.
SHPP,OFF,,NOWARN
/nolist
etcon,set             ! allow ANSYS to choose best KEYOP's for 180x elements, resets any applicable keyopt to MAPDL defaults
/com,*********** Send User Defined Coordinate System(s) ***********
csys,0
/com,*********** Nodes for the whole assembly ***********
nblock,3,,24669
(1i9,3e20.9e3)
        1     1.000000000E+00    -7.030677709E-01     8.093082530E-01
        2     2.000000000E+00    -7.030677709E-01     8.093082530E-01
        3     3.000000000E+00    -7.030677709E-01     8.093082530E-01
        4     4.000000000E+00    -7.030677709E-01     8.093082530E-01
        5     5.000000000E+00    -7.030677709E-01     8.093082530E-01
        6     6.000000000E+00    -7.030677709E-01     8.093082530E-01
        7     7.000000000E+00    -7.030677709E-01     8.093082530E-01
        8     8.000000000E+00    -7.030677709E-01     8.093082530E-01
        9     9.000000000E+00    -7.030677709E-01     8.093082530E-01
       10     1.000000000E+01    -7.030677709E-01     8.093082530E-01
       11     1.100000000E+01    -7.030677709E-01     8.093082530E-01
       12     1.200000000E+01    -7.030677709E-01     8.093082530E-01
       13     1.300000000E+01    -7.030677709E-01     8.093082530E-01
       14     1.400000000E+01    -7.030677709E-01     8.093082530E-01
       15     1.500000000E+01    -7.030677709E-01     8.093082530E-01
       16     1.600000000E+01    -7.030677709E-01     8.093082530E-01
       17     1.700000000E+01    -7.030677709E-01     8.093082530E-01
       18     1.800000000E+01    -7.030677709E-01     8.093082530E-01
       19     1.900000000E+01    -7.030677709E-01     8.093082530E-01
       20     1.000000000E+00    -6.850196474E-01     1.019212241E+00
! ... 22408 like lines cut
/com,*********** Nodes for all Remote Points ***********
nblock,3
(1i9,3e20.9e3)
    22428     1.999999955E+01    -1.422974337E-16    -2.635137661E-17
-1
/wb,elem,start            !  set before creation of elements
/com,*********** Elements for Body 1 'CircularBar5mmRadius\Solid' ***********
et,1,186
keyo,1,2,1          ! set full integration on SOLID186
MAT,1 $ TYPE,1 $ REAL,1 $ SECNUM,1 $ ESYS,0
eblock,11,COMPACT,,5200
(11i9)
        1       77      267      115       96     4836     4826     4834     4835     6084     6238
     6160     6083    20598    20597    20610    20611     6086     6817     6241     6163
        2       77       96      115      267       78       97      116      268     6083     6160
     6238     6084     6088     6165     6244     6089     6082     6159     6236     6814
        3       78       97      116      268       79       98      117      269     6088     6165
     6244     6089     6092     6169     6249     6093     6087     6164     6242     6818
        4       79       98      117      269       80       99      118      270     6092     6169
     6249     6093     6096     6173     6254     6097     6091     6168     6247     6821
        5       80       99      118      270       81      100      119      271     6096     6173
     6254     6097     6100     6177     6259     6101     6095     6172     6252     6824
        6       81      100      119      271       82      101      120      272     6100     6177
     6259     6101     6104     6181     6264     6105     6099     6176     6257     6827
        7       82      101      120      272       83      102      121      273     6104     6181
     6264     6105     6108     6185     6269     6109     6103     6180     6262     6830
        8       83      102      121      273       84      103      122      274     6108     6185
     6269     6109     6112     6189     6274     6113     6107     6184     6267     6833
        9       84      103      122      274       85      104      123      275     6112     6189
     6274     6113     6116     6193     6279     6117     6111     6188     6272     6836
       10       85      104      123      275       86      105      124      276     6116     6193
     6279     6117     6120     6197     6284     6121     6115     6192     6277     6839
! ... 10381 like lines cut
secnum,1    ! reset the section ID to default
! Material Id = {923DC036-9FAA-4597-8259-145F1923808B}
/wb,elem,end               !  done creating elements
toffst,273.15,      ! Temperature offset from absolute zero
/com,*********** Set Reference Temperature ***********
tref,22.
/wb,mat,start              !  starting to send materials
/com,*********** Send Materials ***********
Temperature = 'TEMP' ! Temperature
MP,DENS,1,7.85e-09,	! tonne mm^-3
MP,ALPX,1,1.2e-05,	! C^-1
MP,C,1,434000000,	! mm^2 s^-2 C^-1
MP,KXX,1,60.5,	! tonne mm s^-3 C^-1
MP,RSVX,1,0.00017,	! ohm mm
MP,EX,1,200000,	! tonne s^-2 mm^-1
MP,NUXY,1,0.3,
MP,MURX,1,10000,
MP,UVID,1,c217f658-522e-4d46-84d5-9412bc7de0c1
MP,UMID,1,59002a79-71c2-428e-906b-55d7dbee100e

/wb,mat,end                !  done sending materials
!************************* Model Summary ********************
!CircularBar5mmRadius\Solid,	Structural Steel,	matid,	1
!************************* End Model Summary ********************
! get the diagonal of the bounding box. Needed later for other things
*get,_xmin,node,,mnloc,x
*get,_ymin,node,,mnloc,y
*get,_zmin,node,,mnloc,z
*get,_xmax,node,,mxloc,x
*get,_ymax,node,,mxloc,y
*get,_zmax,node,,mxloc,z
_ASMDIAG=(_xmax-_xmin)*(_xmax-_xmin)+(_ymax-_ymin)*(_ymax-_ymin)+(_zmax-_zmin)*(_zmax-_zmin)
_ASMDIAG=SQRT(_ASMDIAG)
/wb,contact,start          !  starting to send contact
/wb,contact,end            !  done creating contacts
/golist
/wb,load,start             !  starting to send loads
/com,*********** Fixed Supports ***********
CMBLOCK,_FIXEDSU,NODE,       13
(8i10)
      4599     -4840      5704      5705      5725     -5754     20114    -20614
     22377     22378     22380     22399    -22427
cmsel,s,_FIXEDSU
d,all,all
nsel,all
/com,*********** Create Remote Point "Internal Remote Point" ***********
! -------- Remote Point Used by "Moment" --------
*set,tid,3
*set,cid,2
et,cid,174
et,tid,170
keyo,tid,2,1               ! Don't fix the pilot node
keyo,tid,4,111111
keyo,cid,12,5              ! Bonded Contact 
keyo,cid,4,1               ! Deformable RBE3 style load
keyo,cid,2,2               ! MPC style contact
MAT,2 $ TYPE,2 $ REAL,2 $ SECNUM,2 $ ESYS,0
eblock,11,COMPACT,,260
(11i9)
     6362     4862     4848     4843     4843    20639    20622     4843    20624
     6363     4854     4853     4846     4846    20653    20632     4846    20633
     6364     4872     4871     4934     4934    20697    20699     4934    20701
     6365     5071     4911     4859     4859    20797    20666     4859    20669
     6366     4887     4886     4915     4915    20734    20735     4915    20739
     6367     4929     4885     4931     4931    20732    20733     4931    20839
     6368     4846     4847     4855     4845    20631    20635    20629    20628
     6369     4847     4856     4875     4874    20636    20659    20705    20637
     6370     4873     4855     4847     4874    20656    20635    20637    20703
     6371     4845     5061     4842     4841    20630    20620    20615    20616
     6372     4846     4845     4841     4854    20628    20616    20617    20633
     6373     4854     4841     4868     4867    20617    20618    20688    20655
     6374     4842     4869     4868     4841    20619    20690    20618    20615
     6375     4870     4869     4842     5061    20692    20619    20620    20696
     6376     4847     4852     4970     4856    20634    20652    20660    20636
     6377     4856     4970     5055     4857    20660    20909    20663    20658
     6378     4849     5060     4858     4844    20643    20665    20626    20625
     6379     4849     5059     4859     5060    20642    20667    20668    20643
     6380     4879     5059     4860     4880    20718    20673    20671    20716
     6381     4860     4882     4881     4880    20672    20722    20720    20671
! ... 241 like lines cut
secnum,1    ! reset the section ID to default
*set,_npilot,22428
_npilot33=_npilot
type,tid
mat ,cid
real,cid
tshape,pilo
en,6622,_npilot
tshape
/com,*********** Construct Moment Using Remote Attachment ***********
/gst,on,on
fini
*get,_numnode,node,0,count
*get,_numelem,elem,0,count
*get, _MAXELEMNUM, elem, 0, NUM, MAX
*get, _MAXNODENUM, node, 0, NUM, MAX
*get, _MAXELEMTYPE, etyp, 0, NUM, MAX
*get, _MAXREALCONST, rcon, 0, NUM, MAX
/go
/wb,load,end               !  done creating loads
/com,--- Number of total nodes = %_numnode%
/com,--- Number of contact elements = 260
/com,--- Number of spring elements = 0
/com,--- Number of bearing elements = 0
/com,--- Number of solid elements = 5200
/com,--- Number of condensed parts = 0
/com,--- Number of total elements = %_numelem%
*get,_wallbsol,active,,time,wall
/com,****************************************************************************
/com,*************************    SOLUTION       ********************************
/com,****************************************************************************
/solu
antype,0                   ! static analysis
_thickRatio=  1     ! Ratio of thick parts in the model
eqsl,pcg,1e-8,,,,,,1
cntr,print,1               ! print out contact info and also make no initial contact an error
cncheck,dmp		!	Enable program controlled contact splitting for distributed memory parallel run
dmpoption,emat,no             ! Don't combine emat file for DANSYS
dmpoption,esav,no             ! Don't combine esav file for DANSYS
nldiag,cont,iter           ! print out contact info each equilibrium iteration
rescontrol,,none                 ! Do not keep any restart files
/com,****************************************************
/com,******************* SOLVE FOR LS 1 OF 1 ****************
f,22428,mx,10000.
f,22428,my,0.
f,22428,mz,0.
/nopr
/gopr
nsub,1,1,1
time,1.
outres,erase
outres,all,none
outres,nsol,all,
outres,rsol,all
outres,eangl,all
outres,etmp,all
outres,veng,all
outres,strs,all,
outres,epel,all,
outres,eppl,all,
outres,cont,all,
! *********** WB SOLVE COMMAND ***********
! check interactive state
*get,ANSINTER_,active,,int
*if,ANSINTER_,ne,0,then
/eof
*endif
solve
/com *************** Write FE CONNECTORS ********* 
CEWRITE,file,ce,,INTE
/com,****************************************************
/com,*************** FINISHED SOLVE FOR LS 1 *************
*get,_wallasol,active,,time,wall
/nopr
*get,_numnode,node,0,count
*get,_numelem,elem,0,count
*get, _MAXELEMNUM, elem, 0, NUM, MAX
*get, _MAXNODENUM, node, 0, NUM, MAX,,,INTERNAL
*get, _MAXELEMTYPE, etyp, 0, NUM, MAX
*get, _MAXREALCONST, rcon, 0, NUM, MAX
*get,_NSOLTHREADS,active,0,ntfs
*get,_NSOLPROCESSES,active,0,npfs
/gopr
*get,_PCGITER,active,,solu,cgiter
/post1
xmlo,ENCODING,ISO-8859-1
xmlo,parm
/xml,parm,xml
fini
/gopr
*get,_walldone,active,,time,wall
_preptime=(_wallbsol-_wallstrt)*3600
_solvtime=(_wallasol-_wallbsol)*3600
_posttime=(_walldone-_wallasol)*3600
_totaltim=(_walldone-_wallstrt)*3600
*get,_dlbratio,active,0,solu,dlbr
*get,_combtime,active,0,solu,comb
*get,_ssmode,active,0,solu,ssmm
*get,_ndofs,active,0,solu,ndof
*get,_sol_end_time,active,0,set,time
*if,_sol_end_time,eq,1.000000,then
/fclean				!clean distributed files
*endif
/com,--- Total number of nodes = %_numnode%
/com,--- Total number of elements = %_numelem%
/com,--- Element load balance ratio = %_dlbratio%
/com,--- Time to combine distributed files = %_combtime%
/com,--- Sparse memory mode = %_ssmode%
/com,--- Number of DOF = %_ndofs%
/wb,file,end               ! done with WB generated input
