/batch
/config,noeldb,1     ! force off writing results to database
*get,_wallstrt,active,,time,wall
! ANSYS input file written by Workbench version 2025 R2
! File used for geometry attach: C:\Users\aqm81\Dropbox\Cursos\Mecanica de Materiales Avanzada\Probeta\Fatiga\Fatiga WP 140\Fatiga_files\dp0\SYS\DM\SYS.scdoc
/title,Fatiga--Static Structural (A5)
! ****** Begin Custom Load Command Snippet ******
/COM, ACT Extensions:
/COM,     LSDYNA, 2025.2
/COM,     5f463412-bd3e-484b-87e7-cbc0a665e474, wbex
/COM,/COM,     ANSYSMotion, 2025.2
/COM,     20180725-3f81-49eb-9f31-41364844c769, wbex
/COM,
! ****** End   Custom Load Command Snippet ******
*DIM,_wb_ProjectScratch_dir,string,248
_wb_ProjectScratch_dir(1) = 'C:\Users\aqm81\Dropbox\Cursos\Mecanica de Materiales Avanzada\Probeta\Fatiga\Fatiga WP 140\_ProjectScratch\ScrCE11\'
*DIM,_wb_SolverFiles_dir,string,248
_wb_SolverFiles_dir(1) = 'C:\Users\aqm81\Dropbox\Cursos\Mecanica de Materiales Avanzada\Probeta\Fatiga\Fatiga WP 140\Fatiga_files\dp0\SYS\MECH\'
*DIM,_wb_userfiles_dir,string,248
_wb_userfiles_dir(1) = 'C:\Users\aqm81\Dropbox\Cursos\Mecanica de Materiales Avanzada\Probeta\Fatiga\Fatiga WP 140\Fatiga_files\user_files\'
/com,--- Data in consistent NMM units. See Solving Units in the help system for more information.
/units,MPA
/nopr
/wb,file,start              !  signify a WB generated input file
/prep7
! Turn off shape checking because checks already performed inside WB mesher.
! See help system for more information.
SHPP,OFF,,NOWARN
/nolist
etcon,set             ! allow ANSYS to choose best KEYOP's for 180x elements, resets any applicable keyopt to MAPDL defaults
/com,*********** Send User Defined Coordinate System(s) ***********
csys,0
/com,*********** Nodes for the whole assembly ***********
nblock,3,,68544
(1i9,3e20.9e3)
        5     4.358841107E+01    -3.938804680E+00    -4.898587197E-16
        6     4.358841107E+01    -3.930230577E+00    -2.617619362E-01
        7     4.358841107E+01    -3.904569480E+00    -5.222159988E-01
        8     4.358841107E+01    -3.861889147E+00    -7.806460568E-01
        9     4.358841107E+01    -3.802465111E+00    -1.035436177E+00
       10     4.358841107E+01    -3.726547147E+00    -1.285693198E+00
       11     4.358841107E+01    -3.634384896E+00    -1.530583832E+00
       12     4.358841107E+01    -3.526284903E+00    -1.769176546E+00
       13     4.358841107E+01    -3.402933568E+00    -1.999952761E+00
       14     4.358841107E+01    -3.264777472E+00    -2.222139731E+00
       15     4.358841107E+01    -3.112189022E+00    -2.435083534E+00
       16     4.358841107E+01    -2.946007030E+00    -2.637562137E+00
       17     4.358841107E+01    -2.766830384E+00    -2.828828488E+00
       18     4.358841107E+01    -2.575483148E+00    -3.007977170E+00
       19     4.358841107E+01    -2.372942573E+00    -3.174109752E+00
       20     4.358841107E+01    -2.160031592E+00    -3.326582482E+00
       21     4.358841107E+01    -1.937793640E+00    -3.464685143E+00
       22     4.358841107E+01    -1.706956388E+00    -3.587985443E+00
       23     4.358841107E+01    -1.468330572E+00    -3.696018202E+00
       24     4.358841107E+01    -1.223413125E+00    -3.788110498E+00
! ... 62294 like lines cut
/com,*********** Nodes for all Remote Points ***********
nblock,3
(1i9,3e20.9e3)
    62318     1.490884125E+02     0.000000000E+00     0.000000000E+00
-1
/wb,elem,start            !  set before creation of elements
/com,*********** Elements for Body 1 'SYS\Solid' ***********
et,1,187
MAT,1 $ TYPE,1 $ REAL,1 $ SECNUM,1 $ ESYS,0
eblock,11,COMPACT,,42436
(11i9)
        1     7928     8000     8578     8220    59599    60013    59605    59602    60007    61247
        2     7927     8578     7928     8000    59597    59605    59588    59591    60013    59599
        3     7927     8578     8000     8221    59597    60013    59591    59595    61252    60008
        4     8000     8578     8220     8221    60013    61247    60007    60008    61252    61241
        5     7225     7621     8578     7799    55472    57887    55480    55475    57878    58817
        6     7621     8578     8220     7928    57887    61247    57884    57880    59605    59602
        7     7927     8039     8578     8221    59594    60253    59597    59595    60249    61252
        8     8039     8220     8578     8221    60248    61247    60253    60249    61241    61252
        9     7799     7927     8039     8578    58812    59594    58814    58817    59597    60253
       10     7621     8039     8578     7799    57882    60253    57887    57878    58814    58817
       11     8082     8182     8577     8298    60496    61041    60498    60497    61037    61678
       12     8183     8577     8299     8298    61046    61683    61045    61044    61678    61675
       13     8182     8299     8577     8298    61038    61683    61041    61037    61675    61678
       14     8075     8577     8081     8367    60464    60495    60457    60463    62031    60494
       15     7880     8081     8577     8367    59311    60495    59315    59314    60494    62031
       16     8182     8577     8299     8367    61041    61683    61038    61040    62031    61681
       17     8075     8299     8577     8367    60462    61683    60464    60463    61681    62031
       18     7818     8577     7880     8081    58948    59315    58944    58946    60495    59311
       19     7818     8075     8577     8081    58945    60464    58948    58946    60457    60495
       20     8075     8183     8577     8299    60458    61046    60464    60462    61045    61683
! ... 42417 like lines cut
secnum,1    ! reset the section ID to default
! Material Id = {38F0D0E0-B0E2-4C87-98A8-8A069B784D40}
/wb,elem,end               !  done creating elements
toffst,273.15,      ! Temperature offset from absolute zero
/com,*********** Set Reference Temperature ***********
tref,22.
/wb,mat,start              !  starting to send materials
/com,*********** Send Materials ***********
Temperature = 'TEMP' ! Temperature
MP,DENS,1,7.85e-09,	! tonne mm^-3
MP,ALPX,1,1.2e-05,	! C^-1
MP,C,1,434000000,	! mm^2 s^-2 C^-1
MP,KXX,1,60.5,	! tonne mm s^-3 C^-1
MP,RSVX,1,0.00017,	! ohm mm
MP,EX,1,210000,	! tonne s^-2 mm^-1
MP,NUXY,1,0.295,
MP,MURX,1,10000,
MP,UVID,1,92b72e7c-f7f1-49c4-845f-97d433b7fb1b
MP,UMID,1,10a7fa53-6ea2-4ef0-bf2a-93ae70f0c961

/wb,mat,end                !  done sending materials
!************************* Model Summary ********************
!SYS\Solid,	Acero 1020,	matid,	1
!************************* End Model Summary ********************
! get the diagonal of the bounding box. Needed later for other things
*get,_xmin,node,,mnloc,x
*get,_ymin,node,,mnloc,y
*get,_zmin,node,,mnloc,z
*get,_xmax,node,,mxloc,x
*get,_ymax,node,,mxloc,y
*get,_zmax,node,,mxloc,z
_ASMDIAG=(_xmax-_xmin)*(_xmax-_xmin)+(_ymax-_ymin)*(_ymax-_ymin)+(_zmax-_zmin)*(_zmax-_zmin)
_ASMDIAG=SQRT(_ASMDIAG)
/wb,contact,start          !  starting to send contact
/wb,contact,end            !  done creating contacts
/golist
/wb,load,start             !  starting to send loads
/com,*********** Fixed Supports ***********
CMBLOCK,_FIXEDSU,NODE,     1332
(8i10)
       128      -208      1804     -2406      9616     -9619      9621     -9623
      9626     -9628      9631     -9633      9635     -9637      9640     -9642
      9644     -9646      9649     -9651      9654     -9656      9659     -9661
      9664     -9666      9669     -9671      9673     -9675      9678      9679
      9682     -9685      9689     -9691      9695     -9697      9701     -9703
      9708     -9710      9716     -9718      9723     -9725      9730     -9732
      9736     -9738      9743     -9745      9751     -9753      9758     -9760
      9764     -9766      9771     -9773      9779     -9781      9785     -9787
      9791     -9793      9798     -9800      9806     -9808      9813     -9815
      9819     -9821      9826     -9828      9833     -9835      9839     -9841
      9845     -9847      9851     -9853      9857     -9859      9863     -9865
      9869     -9871      9876     -9878      9882     -9884      9888     -9890
      9894     -9896      9900     -9902      9906     -9908      9912     -9914
      9919     -9921      9926     -9928      9932     -9934      9938     -9940
      9944     -9946      9950     -9952      9956     -9958      9962     -9964
      9968     -9970      9974     -9976      9980     -9982      9987     -9989
      9994     -9996     10001    -10003     10008    -10010     10015    -10017
     10021    -10023     10027    -10029     10034    -10036     10041    -10043
     10049    -10051     10056    -10058     10063    -10065     10069    -10071
     10075    -10077     10082    -10084     10089    -10091     10096    -10098
! ... 147 like lines cut
cmsel,s,_FIXEDSU
d,all,all
nsel,all
/com,*********** Create Remote Point "Internal Remote Point" ***********
! -------- Remote Point Used by "Remote Force" --------
*set,tid,3
*set,cid,2
et,cid,174
et,tid,170
keyo,tid,2,1               ! Don't fix the pilot node
keyo,tid,4,111111
keyo,cid,12,5              ! Bonded Contact 
keyo,cid,4,1               ! Deformable RBE3 style load
keyo,cid,2,2               ! MPC style contact
MAT,2 $ TYPE,2 $ REAL,2 $ SECNUM,2 $ ESYS,0
eblock,11,COMPACT,,22
(11i9)
    47900      320      321     2728     2728    11108    11114     2728    11109
    47901      319      320     2728     2728    11103    11109     2728    11104
    47902      328     2730     2726     2726    11143    26359     2726    11141
    47903      321      322     2725     2725    11112    11118     2725    11113
    47904      325     2729     2727     2727    11131    26364     2727    11130
    47905      318      319     2730     2730    11099    11105     2730    11100
    47906      327      328     2729     2729    11137    11142     2729    11138
    47907     2725     2727     2726     2726    26348    26356     2726    26347
    47908      321     2725     2728     2728    11113    26349     2728    11114
    47909      317     2730      328      328    11094    11143      328    11093
    47910      317      318     2730     2730    11092    11100     2730    11094
    47911      328     2726     2729     2729    11141    26358     2729    11142
    47912      325      326     2729     2729    11129    11135     2729    11131
    47913     2726     2730     2728     2728    26359    26369     2728    26357
    47914      322      323     2725     2725    11117    11122     2725    11118
    47915     2725     2726     2728     2728    26347    26357     2728    26349
    47916      319     2728     2730     2730    11104    26369     2730    11105
    47917      323      324     2727     2727    11121    11126     2727    11123
    47918      326      327     2729     2729    11134    11138     2729    11135
    47919      324      325     2727     2727    11125    11130     2727    11126
    47920      323     2727     2725     2725    11123    26348     2725    11122
    47921     2726     2727     2729     2729    26356    26364     2729    26358
-1
secnum,1    ! reset the section ID to default
*set,_npilot,62318
_npilot64=_npilot
type,tid
mat ,cid
real,cid
tshape,pilo
en,47922,_npilot
tshape
/com,*********** Construct Remote Force ***********
/gst,on,on
fini
*get,_numnode,node,0,count
*get,_numelem,elem,0,count
*get, _MAXELEMNUM, elem, 0, NUM, MAX
*get, _MAXNODENUM, node, 0, NUM, MAX
*get, _MAXELEMTYPE, etyp, 0, NUM, MAX
*get, _MAXREALCONST, rcon, 0, NUM, MAX
/go
/wb,load,end               !  done creating loads
/com,--- Number of total nodes = %_numnode%
/com,--- Number of contact elements = 22
/com,--- Number of spring elements = 0
/com,--- Number of bearing elements = 0
/com,--- Number of solid elements = 42436
/com,--- Number of condensed parts = 0
/com,--- Number of total elements = %_numelem%
*get,_wallbsol,active,,time,wall
/com,****************************************************************************
/com,*************************    SOLUTION       ********************************
/com,****************************************************************************
/solu
antype,0                   ! static analysis
_thickRatio=  1     ! Ratio of thick parts in the model
eqsl,pcg,1e-8,,,,,,1
cntr,print,1               ! print out contact info and also make no initial contact an error
dmpoption,emat,no             ! Don't combine emat file for DANSYS
dmpoption,esav,no             ! Don't combine esav file for DANSYS
nldiag,cont,iter           ! print out contact info each equilibrium iteration
rescontrol,,none                 ! Do not keep any restart files
/com,****************************************************
/com,******************* SOLVE FOR LS 1 OF 1 ****************
f,62318,fx,0.
f,62318,fy,-150.
f,62318,fz,0.
/nopr
/gopr
nsub,1,1,1
time,1.
outres,erase
outres,all,none
outres,nsol,all,
outres,rsol,all
outres,eangl,all
outres,etmp,all
outres,veng,all
outres,strs,all,
outres,epel,all,
outres,eppl,all,
outres,cont,all,
! *********** WB SOLVE COMMAND ***********
! check interactive state
*get,ANSINTER_,active,,int
*if,ANSINTER_,ne,0,then
/eof
*endif
solve
/com *************** Write FE CONNECTORS ********* 
CEWRITE,file,ce,,INTE
/com,****************************************************
/com,*************** FINISHED SOLVE FOR LS 1 *************
*get,_wallasol,active,,time,wall
/nopr
*get,_numnode,node,0,count
*get,_numelem,elem,0,count
*get, _MAXELEMNUM, elem, 0, NUM, MAX
*get, _MAXNODENUM, node, 0, NUM, MAX,,,INTERNAL
*get, _MAXELEMTYPE, etyp, 0, NUM, MAX
*get, _MAXREALCONST, rcon, 0, NUM, MAX
*get,_NSOLTHREADS,active,0,ntfs
*get,_NSOLPROCESSES,active,0,npfs
/gopr
*get,_PCGITER,active,,solu,cgiter
/post1
xmlo,ENCODING,ISO-8859-1
xmlo,parm
/xml,parm,xml
fini
/gopr
*get,_walldone,active,,time,wall
_preptime=(_wallbsol-_wallstrt)*3600
_solvtime=(_wallasol-_wallbsol)*3600
_posttime=(_walldone-_wallasol)*3600
_totaltim=(_walldone-_wallstrt)*3600
*get,_dlbratio,active,0,solu,dlbr
*get,_combtime,active,0,solu,comb
*get,_ssmode,active,0,solu,ssmm
*get,_ndofs,active,0,solu,ndof
*get,_sol_end_time,active,0,set,time
*if,_sol_end_time,eq,1.000000,then
/fclean				!clean distributed files
*endif
/com,--- Total number of nodes = %_numnode%
/com,--- Total number of elements = %_numelem%
/com,--- Element load balance ratio = %_dlbratio%
/com,--- Time to combine distributed files = %_combtime%
/com,--- Sparse memory mode = %_ssmode%
/com,--- Number of DOF = %_ndofs%
/wb,file,end               ! done with WB generated input
