/batch
/config,noeldb,1     ! force off writing results to database
*get,_wallstrt,active,,time,wall
! ANSYS input file written by Workbench version 2025 R2
! File used for geometry attach: C:\Users\aqm81\Desktop\Resuelto\Geometry - Uniaxial Tension Test.scdoc
/title,wbnew--Static Structural (A5)
! ****** Begin Custom Load Command Snippet ******
/COM, ACT Extensions:
/COM,     LSDYNA, 2025.2
/COM,     5f463412-bd3e-484b-87e7-cbc0a665e474, wbex
/COM,/COM,     ANSYSMotion, 2025.2
/COM,     20180725-3f81-49eb-9f31-41364844c769, wbex
/COM,
! ****** End   Custom Load Command Snippet ******
*DIM,_wb_ProjectScratch_dir,string,248
_wb_ProjectScratch_dir(1) = 'C:\Users\aqm81\AppData\Local\Temp\WB_aqm81_4184_5\_ProjectScratch\ScrC212\'
*DIM,_wb_SolverFiles_dir,string,248
_wb_SolverFiles_dir(1) = 'C:\Users\aqm81\AppData\Local\Temp\WB_aqm81_4184_5\wbnew_files\dp0\SYS\MECH\'
*DIM,_wb_userfiles_dir,string,248
_wb_userfiles_dir(1) = 'C:\Users\aqm81\AppData\Local\Temp\WB_aqm81_4184_5\wbnew_files\user_files\'
/com,--- Data in consistent NMM units. See Solving Units in the help system for more information.
/units,MPA
/nopr
/wb,file,start              !  signify a WB generated input file
/prep7
! Turn off shape checking because checks already performed inside WB mesher.
! See help system for more information.
SHPP,OFF,,NOWARN
/nolist
etcon,set             ! allow ANSYS to choose best KEYOP's for 180x elements, resets any applicable keyopt to MAPDL defaults
/com,*********** Send User Defined Coordinate System(s) ***********
csys,0
/com,*********** Nodes for the whole assembly ***********
nblock,3,,31780
(1i9,3e20.9e3)
        1     3.518654957E+01     5.578045827E+00     5.000000000E-01
        2     3.536869720E+01     5.777491492E+00     5.000000000E-01
        3     3.464055640E+01     2.816293047E+00     5.000000000E-01
        4    -6.158217706E+00     3.958089080E+00     5.000000000E-01
        5     3.578273617E+01     4.735003238E+00     5.000000000E-01
        6     3.224726496E+01     1.650838638E+00     5.000000000E-01
        7    -6.343551550E+00     1.887748080E+00     5.000000000E-01
        8     3.594299351E+01     1.953427092E+00     5.000000000E-01
        9     3.462997472E+01     6.299669127E-01     5.000000000E-01
       10    -5.201943454E+00    -1.589069573E+00     5.000000000E-01
       11    -5.268578408E+00    -1.110631724E+00     5.000000000E-01
       12     3.747435456E+01     2.650298370E-01     5.000000000E-01
       13     3.797643313E+01     2.348577322E+00     5.000000000E-01
       14    -1.300000000E+01     3.000000000E+00     5.000000000E-01
       15    -1.250000000E+01     3.000000000E+00     5.000000000E-01
       16    -1.150000000E+01     3.000000000E+00     5.000000000E-01
       17    -1.200000000E+01     3.000000000E+00     5.000000000E-01
       18    -1.050000000E+01     3.000000000E+00     5.000000000E-01
       19    -1.100000000E+01     3.000000000E+00     5.000000000E-01
       20    -9.500000000E+00     3.000000000E+00     5.000000000E-01
! ... 28872 like lines cut
/wb,elem,start            !  set before creation of elements
/com,*********** Elements for Body 1 'Geometry - Uniaxial Tension Test\Solid' ***********
et,1,186
keyo,1,2,1          ! set full integration on SOLID186
MAT,1 $ TYPE,1 $ REAL,1 $ SECNUM,1 $ ESYS,0
eblock,11,COMPACT,,5012
(11i9)
        1        1        2      461      299     4672     4671     4212     4374     8017     8023
     9313     8018    22370    21605    21604    21881     8021     8025    10010     9314
        2        1      299      461        2     4673     4971     5133     4674     8018     9313
     8023     8017    22372    23071    22375    22371     8022     9315    10011     8026
        3        1      299      424      463     4672     4374     4249     4210     8018     9311
     9845     8019    21881    21663    21600    21601     8021     9314     9846    10018
        4        1      463      424      299     4673     5135     5096     4971     8019     9845
     9311     8018    22373    23353    23069    22372     8022    10019     9847     9315
        5        1      463      552      487     4672     4210     4121     4186     8019    10016
    10128     8020    21601    21494    21493    21568     8021    10018    10447    10130
        6        1      487      552      463     4673     5159     5224     5135     8020    10128
    10016     8019    22374    23510    23446    22373     8022    10131    10448    10019
        7        1      487      486        2     4672     4186     4187     4671     8020    10123
     8024     8017    21568    21567    21569    22370     8021    10130    10126     8025
        8        1        2      486      487     4673     4674     5158     5159     8017     8024
    10123     8020    22371    22376    23507    22374     8022     8026    10127    10131
        9        2      486      556      461     4671     4187     4117     4212     8024    10124
    10009     8023    21569    21485    21486    21605     8025    10126    10463    10010
       10        2      461      556      486     4674     5133     5228     5158     8023    10009
    10124     8024    22375    23443    23508    22376     8026    10011    10464    10127
! ... 10005 like lines cut
secnum,1    ! reset the section ID to default
! Material Id = {340D216B-817E-4D45-9170-2F1E2FC4C5D7}
/wb,elem,end               !  done creating elements
toffst,273.15,      ! Temperature offset from absolute zero
/com,*********** Set Reference Temperature ***********
tref,22.
/wb,mat,start              !  starting to send materials
/com,*********** Send Materials ***********
Temperature = 'TEMP' ! Temperature
MP,DENS,1,7.85e-09,	! tonne mm^-3
MP,ALPX,1,1.2e-05,	! C^-1
MP,C,1,434000000,	! mm^2 s^-2 C^-1
MP,KXX,1,60.5,	! tonne mm s^-3 C^-1
MP,RSVX,1,0.00017,	! ohm mm
MP,EX,1,200000,	! tonne s^-2 mm^-1
MP,NUXY,1,0.3,
MP,MURX,1,10000,
MP,UVID,1,7fbfe8ac-8c61-4c11-aef1-a9029d42b18a
MP,UMID,1,59002a79-71c2-428e-906b-55d7dbee100e

/wb,mat,end                !  done sending materials
!************************* Model Summary ********************
!Geometry - Uniaxial Tension Test\Solid,	Structural Steel,	matid,	1
!************************* End Model Summary ********************
! get the diagonal of the bounding box. Needed later for other things
*get,_xmin,node,,mnloc,x
*get,_ymin,node,,mnloc,y
*get,_zmin,node,,mnloc,z
*get,_xmax,node,,mxloc,x
*get,_ymax,node,,mxloc,y
*get,_zmax,node,,mxloc,z
_ASMDIAG=(_xmax-_xmin)*(_xmax-_xmin)+(_ymax-_ymin)*(_ymax-_ymin)+(_zmax-_zmin)*(_zmax-_zmin)
_ASMDIAG=SQRT(_ASMDIAG)
/wb,contact,start          !  starting to send contact
/wb,contact,end            !  done creating contacts
/golist
/wb,load,start             !  starting to send loads
/com,*********** Fixed Supports ***********
CMBLOCK,_FIXEDSU,NODE,        9
(8i10)
      7279     -7303      7427     -7476     27753    -27800     27802     28009
    -28081
cmsel,s,_FIXEDSU
d,all,all
nsel,all
/gst,on,on
fini
*get,_numnode,node,0,count
*get,_numelem,elem,0,count
*get, _MAXELEMNUM, elem, 0, NUM, MAX
*get, _MAXNODENUM, node, 0, NUM, MAX
*get, _MAXELEMTYPE, etyp, 0, NUM, MAX
*get, _MAXREALCONST, rcon, 0, NUM, MAX
/go
/wb,load,end               !  done creating loads
/com,--- Number of total nodes = %_numnode%
/com,--- Number of contact elements = 0
/com,--- Number of spring elements = 0
/com,--- Number of bearing elements = 0
/com,--- Number of solid elements = 5012
/com,--- Number of condensed parts = 0
/com,--- Number of total elements = %_numelem%
*get,_wallbsol,active,,time,wall
/com,****************************************************************************
/com,*************************    SOLUTION       ********************************
/com,****************************************************************************
/solu
antype,0                   ! static analysis
_thickRatio=  0     ! Ratio of thick parts in the model
eqsl,sparse,,,,,1
cntr,print,1               ! print out contact info and also make no initial contact an error
cncheck,dmp		!	Enable program controlled contact splitting for distributed memory parallel run
dmpoption,emat,no             ! Don't combine emat file for DANSYS
dmpoption,esav,no             ! Don't combine esav file for DANSYS
nldiag,cont,iter           ! print out contact info each equilibrium iteration
rescontrol,,none                 ! Do not keep any restart files
/com,****************************************************
/com,******************* SOLVE FOR LS 1 OF 1 ****************
/com,*** Set Displacements ***
CMBLOCK,_CM32UX_XP,NODE,        9
(8i10)
      7111     -7135      7763     -7812     27417    -27464     27466     28513
    -28585
cmsel,s,_CM32UX_XP
d,all,ux,1.
nsel,all

/com,*** Component For All Non-Zero UX Displacements ***
cmsel,s,_CM32ux_xp
cm,_DISPNONZEROUX,NODE
nsel,all

/nopr
/gopr
nsub,1,1,1
time,1.
outres,erase
outres,all,none
outres,nsol,all,
outres,rsol,all
outres,eangl,all
outres,etmp,all
outres,veng,all
outres,strs,all,
outres,epel,all,
outres,eppl,all,
outres,cont,all,
! *********** WB SOLVE COMMAND ***********
! check interactive state
*get,ANSINTER_,active,,int
*if,ANSINTER_,ne,0,then
/eof
*endif
solve
/com *************** Write FE CONNECTORS ********* 
CEWRITE,file,ce,,INTE
/com,****************************************************
/com,*************** FINISHED SOLVE FOR LS 1 *************
*get,_wallasol,active,,time,wall
/nopr
*get,_numnode,node,0,count
*get,_numelem,elem,0,count
*get, _MAXELEMNUM, elem, 0, NUM, MAX
*get, _MAXNODENUM, node, 0, NUM, MAX,,,INTERNAL
*get, _MAXELEMTYPE, etyp, 0, NUM, MAX
*get, _MAXREALCONST, rcon, 0, NUM, MAX
*get,_NSOLTHREADS,active,0,ntfs
*get,_NSOLPROCESSES,active,0,npfs
/gopr
/post1
xmlo,ENCODING,ISO-8859-1
xmlo,parm
/xml,parm,xml
fini
/gopr
*get,_walldone,active,,time,wall
_preptime=(_wallbsol-_wallstrt)*3600
_solvtime=(_wallasol-_wallbsol)*3600
_posttime=(_walldone-_wallasol)*3600
_totaltim=(_walldone-_wallstrt)*3600
*get,_dlbratio,active,0,solu,dlbr
*get,_combtime,active,0,solu,comb
*get,_ssmode,active,0,solu,ssmm
*get,_ndofs,active,0,solu,ndof
*get,_sol_end_time,active,0,set,time
*if,_sol_end_time,eq,1.000000,then
/fclean				!clean distributed files
*endif
/com,--- Total number of nodes = %_numnode%
/com,--- Total number of elements = %_numelem%
/com,--- Element load balance ratio = %_dlbratio%
/com,--- Time to combine distributed files = %_combtime%
/com,--- Sparse memory mode = %_ssmode%
/com,--- Number of DOF = %_ndofs%
/wb,file,end               ! done with WB generated input
